MCULE-8039663821
  MOE2022           3D

 37 42  0  0  1  0  0  0  0  0999 V2000
  184.4940  219.0600  165.8320 C   0  0  0  0  0  0  0  0  0  0  0  0
  185.0190  220.2060  165.6310 O   0  0  0  0  0  0  0  0  0  0  0  0
  183.1280  218.8210  165.5680 N   0  0  0  0  0  0  0  0  0  0  0  0
  182.2050  219.7470  165.0330 C   0  0  0  0  0  0  0  0  0  0  0  0
  180.8800  219.0000  164.8060 C   0  0  1  0  0  0  0  0  0  0  0  0
  180.8070  218.6940  163.3070 C   0  0  0  0  0  0  0  0  0  0  0  0
  179.7220  217.7690  163.0870 O   0  0  0  0  0  0  0  0  0  0  0  0
  179.9330  216.4880  163.6400 C   0  0  0  0  0  0  0  0  0  0  0  0
  179.5140  215.3160  163.0140 C   0  0  0  0  0  0  0  0  0  0  0  0
  179.8120  214.1500  163.6550 C   0  0  0  0  0  0  0  0  0  0  0  0
  180.4860  214.1230  164.8680 C   0  0  0  0  0  0  0  0  0  0  0  0
  180.8810  215.2930  165.4670 C   0  0  0  0  0  0  0  0  0  0  0  0
  180.5930  216.5110  164.8320 C   0  0  0  0  0  0  0  0  0  0  0  0
  180.9870  217.7700  165.5570 C   0  0  1  0  0  0  0  0  0  0  0  0
  182.4770  217.5800  165.8610 C   0  0  0  0  0  0  0  0  0  0  0  0
  178.8310  215.4810  161.8290 O   0  0  0  0  0  0  0  0  0  0  0  0
  177.8230  216.4950  161.6440 C   0  0  0  0  0  0  0  0  0  0  0  0
  177.6350  216.7090  160.2820 C   0  0  0  0  0  0  0  0  0  0  0  0
  176.7400  217.6410  159.8010 C   0  0  0  0  0  0  0  0  0  0  0  0
  176.0590  218.3310  160.7900 C   0  0  0  0  0  0  0  0  0  0  0  0
  176.2340  218.1300  162.1660 C   0  0  0  0  0  0  0  0  0  0  0  0
  177.1330  217.1820  162.6100 C   0  0  0  0  0  0  0  0  0  0  0  0
  175.4490  219.1260  162.9680 C   0  0  0  0  0  0  0  0  0  0  0  0
  176.3360  220.1660  163.6260 C   0  0  0  0  0  0  0  0  0  0  0  0
  177.1860  219.4290  164.6760 C   0  0  0  0  0  0  0  0  0  0  0  0
  176.4870  218.5250  165.2560 O   0  0  0  0  0  0  0  0  0  0  0  0
  178.4660  219.7160  164.9080 N   0  0  0  0  0  0  0  0  0  0  0  0
  179.8110  220.0140  165.1550 C   0  0  0  0  0  0  0  0  0  0  0  0
  178.5840  218.6830  165.7940 H   0  0  0  0  0  0  0  0  0  0  0  0
  185.5000  215.9070  169.2800 O   0  0  0  0  0  0  0  0  0  0  0  0
  185.8640  216.4560  168.0700 C   0  0  0  0  0  0  0  0  0  0  0  0
  185.1100  217.4320  167.5220 N   0  0  0  0  0  0  0  0  0  0  0  0
  185.3900  218.0220  166.3420 C   0  0  0  0  0  0  0  0  0  0  0  0
  186.5120  217.5840  165.6890 C   0  0  0  0  0  0  0  0  0  0  0  0
  187.3210  216.5960  166.1940 C   0  0  0  0  0  0  0  0  0  0  0  0
  187.0020  216.0210  167.3900 C   0  0  0  0  0  0  0  0  0  0  0  0
  185.8360  214.9920  169.5710 H   0  0  0  0  0  0  0  0  0  0  0  0
  1  2  2  0  0  0  0
  1  3  1  0  0  0  0
  1 33  1  0  0  0  0
  3  4  1  0  0  0  0
  3 15  1  0  0  0  0
  4  5  1  0  0  0  0
  5  6  1  0  0  0  0
  5 14  1  0  0  0  0
  5 28  1  0  0  0  0
  6  7  1  0  0  0  0
  7  8  1  0  0  0  0
  8  9  2  0  0  0  0
  8 13  1  0  0  0  0
  9 10  1  0  0  0  0
  9 16  1  0  0  0  0
 10 11  2  0  0  0  0
 11 12  1  0  0  0  0
 12 13  2  0  0  0  0
 13 14  1  0  0  0  0
 14 15  1  0  0  0  0
 16 17  1  0  0  0  0
 17 18  1  0  0  0  0
 17 22  2  0  0  0  0
 18 19  2  0  0  0  0
 19 20  1  0  0  0  0
 20 21  2  0  0  0  0
 21 22  1  0  0  0  0
 21 23  1  0  0  0  0
 23 24  1  0  0  0  0
 24 25  1  0  0  0  0
 25 26  2  0  0  0  0
 25 27  1  0  0  0  0
 27 28  1  0  0  0  0
 27 29  1  0  0  0  0
 30 31  1  0  0  0  0
 30 37  1  0  0  0  0
 31 32  2  0  0  0  0
 31 36  1  0  0  0  0
 32 33  1  0  0  0  0
 33 34  2  0  0  0  0
 34 35  1  0  0  0  0
 35 36  2  0  0  0  0
M  END
>  <cSMILES>
O=C(N1C[C@]23[C@@](c4c(OC2)c(Oc2cc(ccc2)CCC(=O)NC3)ccc4)C1)c1nc(O)ccc1

>  <mcule_ids>
MCULE-8039663821

>  <ClusterID>
48

>  <minimizedAffinity>
-11.50064

$$$$
